Circuit: * C:\Users\mrsuh\AppData\Local\LTspice\mosfet simulation.asc

WARNING: Node NC_01 is floating.

.OP point found by inspection.
.step vgs=0
.step vgs=1
.step vgs=2
.step vgs=3
.step vgs=4
.step vgs=5
.step vgs=6
.step vgs=7
.step vgs=8
.step vgs=9

Date: Sun Mar 31 12:45:31 2024
Total elapsed time: 0.543 seconds.

tnom = 27
temp = 27
method = trap
totiter = 740
traniter = 0
tranpoints = 0
accept = 0
rejected = 0
matrix size = 7
fillins = 0
solver = Normal
Avg thread counts: 10.4/0.0/18.2/10.4
Matrix Compiler1: 294 bytes object code size  0.3/0.2/[0.2]
Matrix Compiler2: 487 bytes object code size  0.2/0.2/[0.2]

